/*---------------------------------------------------------------------------*\
| =========                 |                                                 |
| \\      /  F ield         | OpenFOAM: The Open Source CFD Toolbox           |
|  \\    /   O peration     | Version:  v1906                                 |
|   \\  /    A nd           | Web:      www.OpenFOAM.com                      |
|    \\/     M anipulation  |                                                 |
\*---------------------------------------------------------------------------*/
Build  : v1906 OPENFOAM=1906
Arch   : "LSB;label=32;scalar=64"
Exec   : createPatch -overwrite
Date   : Jul 17 2019
Time   : 14:11:13
Host   : DESKTOP-9S60IA4
PID    : 4066
I/O    : uncollated
Case   : /home/theodore_ong/GitHub_software/pipeflow_snappyHexMesh
nProcs : 1
trapFpe: Floating point exception trapping enabled (FOAM_SIGFPE).
fileModificationChecking : Monitoring run-time modified files using timeStampMaster (fileModificationSkew 10)
allowSystemOperations : Allowing user-supplied system call operations

// * * * * * * * * * * * * * * * * * * * * * * * * * * * * * * * * * * * * * //
Create time

Create polyMesh for time = 0

Reading "system/createPatchDict"

Adding new patch wall as patch 1 from 
{
    type            patch;
}

Adding new patch inlet as patch 2 from 
{
    type            patch;
}

Adding new patch outlet as patch 3 from 
{
    type            patch;
}


Read 14560 faces from faceSet wall
Read 9300 faces from faceSet inlet
Read 9325 faces from faceSet outlet

Doing topology modification to order faces.

Not synchronising points.

Removing patches with no faces in them.

Removing zero-sized patch simple_cylinder.stl type wall at position 0
Removing patches.
Writing repatched mesh to 0

End

